*SPEF "IEEE 1481-1998"
*DESIGN "ensc450"
*DATE "Sun Apr 18 22:37:38 2021"
*VENDOR "Cadence Design Systems, Inc."
*PROGRAM "Innovus"
*VERSION "18.10-p002_1"
*DESIGN_FLOW "COUPLING C" "PIN_CAP NONE" "NAME_SCOPE LOCAL"
*DIVIDER /
*DELIMITER :
*BUS_DELIMITER []
*T_UNIT 1 NS
*C_UNIT 1 PF
*R_UNIT 1 OHM
*L_UNIT 1 HENRY

// MMMC spef file for corner 'nangate45nm_caps'

*NAME_MAP

*1 My_bus/FE_OFN82_n86
*2 My_bus/FE_OFN81_n85
*3 My_bus/FE_OFN80_n75
*4 My_bus/FE_OFN79_n63
*5 My_bus/FE_OFN78_n62
*6 My_bus/FE_OFN77_n61
*7 My_bus/FE_OFN76_n60
*8 My_bus/FE_OFN75_n59
*9 My_bus/FE_OFN74_n58
*10 My_bus/FE_OFN73_n97
*11 my_Counter/FE_OFN72_n369
*12 my_Counter/FE_OFN71_n368
*13 my_Counter/FE_OFN70_n367
*14 my_Counter/FE_OFN69_n366
*15 my_Counter/FE_OFN68_n233
*16 my_Counter/FE_OFN67_n183
*17 my_Counter/FE_OFN66_n132
*18 my_Counter/FE_OFN65_n50
*19 My_bus/FE_OFN64_n93
*20 My_bus/FE_OFN63_n54
*21 My_bus/FE_OFN62_n53
*22 My_bus/FE_OFN61_n52
*23 My_bus/FE_OFN60_n51
*24 My_bus/FE_OFN59_n50
*25 My_bus/FE_OFN58_n49
*26 My_bus/FE_OFN57_n48
*27 My_bus/FE_OFN56_n47
*28 My_bus/FE_OFN55_n46
*29 My_bus/FE_OFN54_n45
*30 My_bus/FE_OFN53_n44
*31 My_bus/FE_OFN52_n43
*32 My_bus/FE_OFN51_n42
*33 My_bus/FE_OFN50_n41
*34 My_bus/FE_OFN49_n40
*35 My_bus/FE_OFN48_n39
*36 My_bus/FE_OFN47_n38
*37 My_bus/FE_OFN46_n37
*38 My_bus/FE_OFN45_n36
*39 My_bus/FE_OFN44_n35
*40 My_bus/FE_OFN43_n33
*41 My_bus/FE_OFN42_n32
*42 My_bus/FE_OFN41_n31
*43 My_bus/FE_OFN40_n29
*44 My_bus/FE_OFN39_n27
*45 My_bus/FE_OFN38_n26
*46 My_bus/FE_OFN37_n24
*47 My_bus/FE_OFN36_n23
*48 My_bus/FE_OFN35_n21
*49 My_bus/FE_OFN34_n20
*50 My_bus/FE_OFN33_n19
*51 My_bus/FE_OFN32_n17
*52 FE_OFN31_EXT_RDATABUS_0
*53 FE_OFN30_EXT_RDATABUS_1
*54 FE_OFN29_EXT_RDATABUS_2
*55 FE_OFN28_EXT_RDATABUS_3
*56 FE_OFN27_EXT_RDATABUS_4
*57 FE_OFN26_EXT_RDATABUS_5
*58 FE_OFN25_EXT_RDATABUS_6
*59 FE_OFN24_EXT_RDATABUS_7
*60 FE_OFN23_EXT_RDATABUS_8
*61 FE_OFN22_EXT_RDATABUS_9
*62 FE_OFN21_EXT_RDATABUS_10
*63 FE_OFN20_EXT_RDATABUS_11
*64 FE_OFN19_EXT_RDATABUS_12
*65 FE_OFN18_EXT_RDATABUS_13
*66 FE_OFN17_EXT_RDATABUS_14
*67 FE_OFN16_EXT_RDATABUS_15
*68 FE_OFN15_EXT_RDATABUS_16
*69 FE_OFN14_EXT_RDATABUS_17
*70 FE_OFN13_EXT_RDATABUS_18
*71 FE_OFN12_EXT_RDATABUS_19
*72 FE_OFN11_EXT_RDATABUS_20
*73 FE_OFN10_EXT_RDATABUS_21
*74 FE_OFN9_EXT_RDATABUS_22
*75 FE_OFN8_EXT_RDATABUS_23
*76 FE_OFN7_EXT_RDATABUS_24
*77 FE_OFN6_EXT_RDATABUS_25
*78 FE_OFN5_EXT_RDATABUS_26
*79 FE_OFN4_EXT_RDATABUS_27
*80 FE_OFN3_EXT_RDATABUS_28
*81 FE_OFN2_EXT_RDATABUS_29
*82 FE_OFN1_EXT_RDATABUS_30
*83 FE_OFN0_EXT_RDATABUS_31
*84 EXT_ADDRBUS[31]
*85 EXT_ADDRBUS[30]
*86 EXT_ADDRBUS[29]
*87 EXT_ADDRBUS[28]
*88 EXT_ADDRBUS[27]
*89 EXT_ADDRBUS[26]
*90 EXT_ADDRBUS[25]
*91 EXT_ADDRBUS[24]
*92 EXT_ADDRBUS[23]
*93 EXT_ADDRBUS[22]
*94 EXT_ADDRBUS[21]
*95 EXT_ADDRBUS[20]
*96 EXT_ADDRBUS[19]
*97 EXT_ADDRBUS[18]
*98 EXT_ADDRBUS[17]
*99 EXT_ADDRBUS[16]
*100 EXT_ADDRBUS[15]
*101 EXT_ADDRBUS[14]
*102 EXT_ADDRBUS[13]
*103 EXT_ADDRBUS[12]
*104 EXT_ADDRBUS[11]
*105 EXT_ADDRBUS[10]
*106 EXT_ADDRBUS[9]
*107 EXT_ADDRBUS[8]
*108 EXT_ADDRBUS[7]
*109 EXT_ADDRBUS[6]
*110 EXT_ADDRBUS[5]
*111 EXT_ADDRBUS[4]
*112 EXT_ADDRBUS[3]
*113 EXT_ADDRBUS[2]
*114 EXT_ADDRBUS[1]
*115 EXT_ADDRBUS[0]
*116 EXT_RDATABUS[31]
*117 EXT_RDATABUS[30]
*118 EXT_RDATABUS[29]
*119 EXT_RDATABUS[28]
*120 EXT_RDATABUS[27]
*121 EXT_RDATABUS[26]
*122 EXT_RDATABUS[25]
*123 EXT_RDATABUS[24]
*124 EXT_RDATABUS[23]
*125 EXT_RDATABUS[22]
*126 EXT_RDATABUS[21]
*127 EXT_RDATABUS[20]
*128 EXT_RDATABUS[19]
*129 EXT_RDATABUS[18]
*130 EXT_RDATABUS[17]
*131 EXT_RDATABUS[16]
*132 EXT_RDATABUS[15]
*133 EXT_RDATABUS[14]
*134 EXT_RDATABUS[13]
*135 EXT_RDATABUS[12]
*136 EXT_RDATABUS[11]
*137 EXT_RDATABUS[10]
*138 EXT_RDATABUS[9]
*139 EXT_RDATABUS[8]
*140 EXT_RDATABUS[7]
*141 EXT_RDATABUS[6]
*142 EXT_RDATABUS[5]
*143 EXT_RDATABUS[4]
*144 EXT_RDATABUS[3]
*145 EXT_RDATABUS[2]
*146 EXT_RDATABUS[1]
*147 EXT_RDATABUS[0]
*148 EXT_WDATABUS[31]
*149 EXT_WDATABUS[30]
*150 EXT_WDATABUS[29]
*151 EXT_WDATABUS[28]
*152 EXT_WDATABUS[27]
*153 EXT_WDATABUS[26]
*154 EXT_WDATABUS[25]
*155 EXT_WDATABUS[24]
*156 EXT_WDATABUS[23]
*157 EXT_WDATABUS[22]
*158 EXT_WDATABUS[21]
*159 EXT_WDATABUS[20]
*160 EXT_WDATABUS[19]
*161 EXT_WDATABUS[18]
*162 EXT_WDATABUS[17]
*163 EXT_WDATABUS[16]
*164 EXT_WDATABUS[15]
*165 EXT_WDATABUS[14]
*166 EXT_WDATABUS[13]
*167 EXT_WDATABUS[12]
*168 EXT_WDATABUS[11]
*169 EXT_WDATABUS[10]
*170 EXT_WDATABUS[9]
*171 EXT_WDATABUS[8]
*172 EXT_WDATABUS[7]
*173 EXT_WDATABUS[6]
*174 EXT_WDATABUS[5]
*175 EXT_WDATABUS[4]
*176 EXT_WDATABUS[3]
*177 EXT_WDATABUS[2]
*178 EXT_WDATABUS[1]
*179 EXT_WDATABUS[0]
*180 clk
*181 resetn
*182 EXT_BUSY
*183 EXT_MR
*184 EXT_MW
*185 EXT_NREADY
*186 DMAM_MR
*187 DMAM_MW
*188 DMAM_NREADY
*189 SRAM_MR
*190 SRAM_MW
*191 YOUR_MR
*192 YOUR_MW
*193 YOUR_NREADY
*194 DMAS_BUSY
*195 DMAS_MW
*196 CNT_MR
*197 CNT_MW
*198 SRAM_MRN
*199 SRAM_MWN
*200 DMAM_ADDRBUS[31]
*201 DMAM_ADDRBUS[30]
*202 DMAM_ADDRBUS[29]
*203 DMAM_ADDRBUS[28]
*204 DMAM_ADDRBUS[27]
*205 DMAM_ADDRBUS[26]
*206 DMAM_ADDRBUS[25]
*207 DMAM_ADDRBUS[24]
*208 DMAM_ADDRBUS[23]
*209 DMAM_ADDRBUS[22]
*210 DMAM_ADDRBUS[21]
*211 DMAM_ADDRBUS[20]
*212 DMAM_ADDRBUS[19]
*213 DMAM_ADDRBUS[18]
*214 DMAM_ADDRBUS[17]
*215 DMAM_ADDRBUS[16]
*216 DMAM_ADDRBUS[15]
*217 DMAM_ADDRBUS[14]
*218 DMAM_ADDRBUS[13]
*219 DMAM_ADDRBUS[12]
*220 DMAM_ADDRBUS[11]
*221 DMAM_ADDRBUS[10]
*222 DMAM_ADDRBUS[9]
*223 DMAM_ADDRBUS[8]
*224 DMAM_ADDRBUS[7]
*225 DMAM_ADDRBUS[6]
*226 DMAM_ADDRBUS[5]
*227 DMAM_ADDRBUS[4]
*228 DMAM_ADDRBUS[3]
*229 DMAM_ADDRBUS[2]
*230 DMAM_ADDRBUS[1]
*231 DMAM_ADDRBUS[0]
*232 DMAM_RDATABUS[31]
*233 DMAM_RDATABUS[30]
*234 DMAM_RDATABUS[29]
*235 DMAM_RDATABUS[28]
*236 DMAM_RDATABUS[27]
*237 DMAM_RDATABUS[26]
*238 DMAM_RDATABUS[25]
*239 DMAM_RDATABUS[24]
*240 DMAM_RDATABUS[23]
*241 DMAM_RDATABUS[22]
*242 DMAM_RDATABUS[21]
*243 DMAM_RDATABUS[20]
*244 DMAM_RDATABUS[19]
*245 DMAM_RDATABUS[18]
*246 DMAM_RDATABUS[17]
*247 DMAM_RDATABUS[16]
*248 DMAM_RDATABUS[15]
*249 DMAM_RDATABUS[14]
*250 DMAM_RDATABUS[13]
*251 DMAM_RDATABUS[12]
*252 DMAM_RDATABUS[11]
*253 DMAM_RDATABUS[10]
*254 DMAM_RDATABUS[9]
*255 DMAM_RDATABUS[8]
*256 DMAM_RDATABUS[7]
*257 DMAM_RDATABUS[6]
*258 DMAM_RDATABUS[5]
*259 DMAM_RDATABUS[4]
*260 DMAM_RDATABUS[3]
*261 DMAM_RDATABUS[2]
*262 DMAM_RDATABUS[1]
*263 DMAM_RDATABUS[0]
*264 DMAM_WDATABUS[31]
*265 DMAM_WDATABUS[30]
*266 DMAM_WDATABUS[29]
*267 DMAM_WDATABUS[28]
*268 DMAM_WDATABUS[27]
*269 DMAM_WDATABUS[26]
*270 DMAM_WDATABUS[25]
*271 DMAM_WDATABUS[24]
*272 DMAM_WDATABUS[23]
*273 DMAM_WDATABUS[22]
*274 DMAM_WDATABUS[21]
*275 DMAM_WDATABUS[20]
*276 DMAM_WDATABUS[19]
*277 DMAM_WDATABUS[18]
*278 DMAM_WDATABUS[17]
*279 DMAM_WDATABUS[16]
*280 DMAM_WDATABUS[15]
*281 DMAM_WDATABUS[14]
*282 DMAM_WDATABUS[13]
*283 DMAM_WDATABUS[12]
*284 DMAM_WDATABUS[11]
*285 DMAM_WDATABUS[10]
*286 DMAM_WDATABUS[9]
*287 DMAM_WDATABUS[8]
*288 DMAM_WDATABUS[7]
*289 DMAM_WDATABUS[6]
*290 DMAM_WDATABUS[5]
*291 DMAM_WDATABUS[4]
*292 DMAM_WDATABUS[3]
*293 DMAM_WDATABUS[2]
*294 DMAM_WDATABUS[1]
*295 DMAM_WDATABUS[0]
*296 SRAM_ADDRBUS[10]
*297 SRAM_ADDRBUS[9]
*298 SRAM_ADDRBUS[8]
*299 SRAM_ADDRBUS[7]
*300 SRAM_ADDRBUS[6]
*301 SRAM_ADDRBUS[5]
*302 SRAM_ADDRBUS[4]
*303 SRAM_ADDRBUS[3]
*304 SRAM_ADDRBUS[2]
*305 SRAM_ADDRBUS[1]
*306 SRAM_ADDRBUS[0]
*307 SRAM_RDATABUS[31]
*308 SRAM_RDATABUS[30]
*309 SRAM_RDATABUS[29]
*310 SRAM_RDATABUS[28]
*311 SRAM_RDATABUS[27]
*312 SRAM_RDATABUS[26]
*313 SRAM_RDATABUS[25]
*314 SRAM_RDATABUS[24]
*315 SRAM_RDATABUS[23]
*316 SRAM_RDATABUS[22]
*317 SRAM_RDATABUS[21]
*318 SRAM_RDATABUS[20]
*319 SRAM_RDATABUS[19]
*320 SRAM_RDATABUS[18]
*321 SRAM_RDATABUS[17]
*322 SRAM_RDATABUS[16]
*323 SRAM_RDATABUS[15]
*324 SRAM_RDATABUS[14]
*325 SRAM_RDATABUS[13]
*326 SRAM_RDATABUS[12]
*327 SRAM_RDATABUS[11]
*328 SRAM_RDATABUS[10]
*329 SRAM_RDATABUS[9]
*330 SRAM_RDATABUS[8]
*331 SRAM_RDATABUS[7]
*332 SRAM_RDATABUS[6]
*333 SRAM_RDATABUS[5]
*334 SRAM_RDATABUS[4]
*335 SRAM_RDATABUS[3]
*336 SRAM_RDATABUS[2]
*337 SRAM_RDATABUS[1]
*338 SRAM_RDATABUS[0]
*339 SRAM_WDATABUS[31]
*340 SRAM_WDATABUS[30]
*341 SRAM_WDATABUS[29]
*342 SRAM_WDATABUS[28]
*343 SRAM_WDATABUS[27]
*344 SRAM_WDATABUS[26]
*345 SRAM_WDATABUS[25]
*346 SRAM_WDATABUS[24]
*347 SRAM_WDATABUS[23]
*348 SRAM_WDATABUS[22]
*349 SRAM_WDATABUS[21]
*350 SRAM_WDATABUS[20]
*351 SRAM_WDATABUS[19]
*352 SRAM_WDATABUS[18]
*353 SRAM_WDATABUS[17]
*354 SRAM_WDATABUS[16]
*355 SRAM_WDATABUS[15]
*356 SRAM_WDATABUS[14]
*357 SRAM_WDATABUS[13]
*358 SRAM_WDATABUS[12]
*359 SRAM_WDATABUS[11]
*360 SRAM_WDATABUS[10]
*361 SRAM_WDATABUS[9]
*362 SRAM_WDATABUS[8]
*363 SRAM_WDATABUS[7]
*364 SRAM_WDATABUS[6]
*365 SRAM_WDATABUS[5]
*366 SRAM_WDATABUS[4]
*367 SRAM_WDATABUS[3]
*368 SRAM_WDATABUS[2]
*369 SRAM_WDATABUS[1]
*370 SRAM_WDATABUS[0]
*371 YOUR_ADDRBUS[31]
*372 YOUR_ADDRBUS[30]
*373 YOUR_ADDRBUS[29]
*374 YOUR_ADDRBUS[28]
*375 YOUR_ADDRBUS[27]
*376 YOUR_ADDRBUS[26]
*377 YOUR_ADDRBUS[25]
*378 YOUR_ADDRBUS[24]
*379 YOUR_ADDRBUS[23]
*380 YOUR_ADDRBUS[22]
*381 YOUR_ADDRBUS[21]
*382 YOUR_ADDRBUS[20]
*383 YOUR_ADDRBUS[19]
*384 YOUR_ADDRBUS[18]
*385 YOUR_ADDRBUS[17]
*386 YOUR_ADDRBUS[16]
*387 YOUR_ADDRBUS[15]
*388 YOUR_ADDRBUS[14]
*389 YOUR_ADDRBUS[13]
*390 YOUR_ADDRBUS[12]
*391 YOUR_ADDRBUS[11]
*392 YOUR_ADDRBUS[10]
*393 YOUR_ADDRBUS[9]
*394 YOUR_ADDRBUS[8]
*395 YOUR_ADDRBUS[7]
*396 YOUR_ADDRBUS[6]
*397 YOUR_ADDRBUS[5]
*398 YOUR_ADDRBUS[4]
*399 YOUR_ADDRBUS[3]
*400 YOUR_ADDRBUS[2]
*401 YOUR_ADDRBUS[1]
*402 YOUR_ADDRBUS[0]
*403 YOUR_RDATABUS[31]
*404 YOUR_RDATABUS[30]
*405 YOUR_RDATABUS[29]
*406 YOUR_RDATABUS[28]
*407 YOUR_RDATABUS[27]
*408 YOUR_RDATABUS[26]
*409 YOUR_RDATABUS[25]
*410 YOUR_RDATABUS[24]
*411 YOUR_RDATABUS[23]
*412 YOUR_RDATABUS[22]
*413 YOUR_RDATABUS[21]
*414 YOUR_RDATABUS[20]
*415 YOUR_RDATABUS[19]
*416 YOUR_RDATABUS[18]
*417 YOUR_RDATABUS[17]
*418 YOUR_RDATABUS[16]
*419 YOUR_RDATABUS[15]
*420 YOUR_RDATABUS[14]
*421 YOUR_RDATABUS[13]
*422 YOUR_RDATABUS[12]
*423 YOUR_RDATABUS[11]
*424 YOUR_RDATABUS[10]
*425 YOUR_RDATABUS[9]
*426 YOUR_RDATABUS[8]
*427 YOUR_RDATABUS[7]
*428 YOUR_RDATABUS[6]
*429 YOUR_RDATABUS[5]
*430 YOUR_RDATABUS[4]
*431 YOUR_RDATABUS[3]
*432 YOUR_RDATABUS[2]
*433 YOUR_RDATABUS[1]
*434 YOUR_RDATABUS[0]
*435 YOUR_WDATABUS[31]
*436 YOUR_WDATABUS[30]
*437 YOUR_WDATABUS[29]
*438 YOUR_WDATABUS[28]
*439 YOUR_WDATABUS[27]
*440 YOUR_WDATABUS[26]
*441 YOUR_WDATABUS[25]
*442 YOUR_WDATABUS[24]
*443 YOUR_WDATABUS[23]
*444 YOUR_WDATABUS[22]
*445 YOUR_WDATABUS[21]
*446 YOUR_WDATABUS[20]
*447 YOUR_WDATABUS[19]
*448 YOUR_WDATABUS[18]
*449 YOUR_WDATABUS[17]
*450 YOUR_WDATABUS[16]
*451 YOUR_WDATABUS[15]
*452 YOUR_WDATABUS[14]
*453 YOUR_WDATABUS[13]
*454 YOUR_WDATABUS[12]
*455 YOUR_WDATABUS[11]
*456 YOUR_WDATABUS[10]
*457 YOUR_WDATABUS[9]
*458 YOUR_WDATABUS[8]
*459 YOUR_WDATABUS[7]
*460 YOUR_WDATABUS[6]
*461 YOUR_WDATABUS[5]
*462 YOUR_WDATABUS[4]
*463 YOUR_WDATABUS[3]
*464 YOUR_WDATABUS[2]
*465 YOUR_WDATABUS[1]
*466 YOUR_WDATABUS[0]
*467 DMAS_ADDRBUS[3]
*468 DMAS_ADDRBUS[2]
*469 DMAS_ADDRBUS[1]
*470 DMAS_ADDRBUS[0]
*471 DMAS_RDATABUS[31]
*472 DMAS_RDATABUS[30]
*473 DMAS_RDATABUS[29]
*474 DMAS_RDATABUS[28]
*475 DMAS_RDATABUS[27]
*476 DMAS_RDATABUS[26]
*477 DMAS_RDATABUS[25]
*478 DMAS_RDATABUS[24]
*479 DMAS_RDATABUS[23]
*480 DMAS_RDATABUS[22]
*481 DMAS_RDATABUS[21]
*482 DMAS_RDATABUS[20]
*483 DMAS_RDATABUS[19]
*484 DMAS_RDATABUS[18]
*485 DMAS_RDATABUS[17]
*486 DMAS_RDATABUS[16]
*487 DMAS_RDATABUS[15]
*488 DMAS_RDATABUS[14]
*489 DMAS_RDATABUS[13]
*490 DMAS_RDATABUS[12]
*491 DMAS_RDATABUS[11]
*492 DMAS_RDATABUS[10]
*493 DMAS_RDATABUS[9]
*494 DMAS_RDATABUS[8]
*495 DMAS_RDATABUS[7]
*496 DMAS_RDATABUS[6]
*497 DMAS_RDATABUS[5]
*498 DMAS_RDATABUS[4]
*499 DMAS_RDATABUS[3]
*500 DMAS_RDATABUS[2]
*501 DMAS_RDATABUS[1]
*502 DMAS_RDATABUS[0]
*503 DMAS_WDATABUS[31]
*504 DMAS_WDATABUS[30]
*505 DMAS_WDATABUS[29]
*506 DMAS_WDATABUS[28]
*507 DMAS_WDATABUS[27]
*508 DMAS_WDATABUS[26]
*509 DMAS_WDATABUS[25]
*510 DMAS_WDATABUS[24]
*511 DMAS_WDATABUS[23]
*512 DMAS_WDATABUS[22]
*513 DMAS_WDATABUS[21]
*514 DMAS_WDATABUS[20]
*515 DMAS_WDATABUS[19]
*516 DMAS_WDATABUS[18]
*517 DMAS_WDATABUS[17]
*518 DMAS_WDATABUS[16]
*519 DMAS_WDATABUS[15]
*520 DMAS_WDATABUS[14]
*521 DMAS_WDATABUS[13]
*522 DMAS_WDATABUS[12]
*523 DMAS_WDATABUS[11]
*524 DMAS_WDATABUS[10]
*525 DMAS_WDATABUS[9]
*526 DMAS_WDATABUS[8]
*527 DMAS_WDATABUS[7]
*528 DMAS_WDATABUS[6]
*529 DMAS_WDATABUS[5]
*530 DMAS_WDATABUS[4]
*531 DMAS_WDATABUS[3]
*532 DMAS_WDATABUS[2]
*533 DMAS_WDATABUS[1]
*534 DMAS_WDATABUS[0]
*535 CNT_ADDRBUS[7]
*536 CNT_ADDRBUS[6]
*537 CNT_ADDRBUS[5]
*538 CNT_ADDRBUS[4]
*539 CNT_ADDRBUS[1]
*540 CNT_ADDRBUS[0]
*541 CNT_RDATABUS[31]
*542 CNT_RDATABUS[30]
*543 CNT_RDATABUS[29]
*544 CNT_RDATABUS[28]
*545 CNT_RDATABUS[27]
*546 CNT_RDATABUS[26]
*547 CNT_RDATABUS[25]
*548 CNT_RDATABUS[24]
*549 CNT_RDATABUS[23]
*550 CNT_RDATABUS[22]
*551 CNT_RDATABUS[21]
*552 CNT_RDATABUS[20]
*553 CNT_RDATABUS[19]
*554 CNT_RDATABUS[18]
*555 CNT_RDATABUS[17]
*556 CNT_RDATABUS[16]
*557 CNT_RDATABUS[15]
*558 CNT_RDATABUS[14]
*559 CNT_RDATABUS[13]
*560 CNT_RDATABUS[12]
*561 CNT_RDATABUS[11]
*562 CNT_RDATABUS[10]
*563 CNT_RDATABUS[9]
*564 CNT_RDATABUS[8]
*565 CNT_RDATABUS[7]
*566 CNT_RDATABUS[6]
*567 CNT_RDATABUS[5]
*568 CNT_RDATABUS[4]
*569 CNT_RDATABUS[3]
*570 CNT_RDATABUS[2]
*571 CNT_RDATABUS[1]
*572 CNT_RDATABUS[0]
*573 CNT_WDATABUS[31]
*574 CNT_WDATABUS[30]
*575 CNT_WDATABUS[29]
*576 CNT_WDATABUS[28]
*577 CNT_WDATABUS[27]
*578 CNT_WDATABUS[26]
*579 CNT_WDATABUS[25]
*580 CNT_WDATABUS[24]
*581 CNT_WDATABUS[23]
*582 CNT_WDATABUS[22]
*583 CNT_WDATABUS[21]
*584 CNT_WDATABUS[20]
*585 CNT_WDATABUS[19]
*586 CNT_WDATABUS[18]
*587 CNT_WDATABUS[17]
*588 CNT_WDATABUS[16]
*589 CNT_WDATABUS[15]
*590 CNT_WDATABUS[14]
*591 CNT_WDATABUS[13]
*592 CNT_WDATABUS[12]
*593 CNT_WDATABUS[11]
*594 CNT_WDATABUS[10]
*595 CNT_WDATABUS[9]
*596 CNT_WDATABUS[8]
*597 CNT_WDATABUS[7]
*598 CNT_WDATABUS[6]
*599 CNT_WDATABUS[5]
*600 CNT_WDATABUS[4]
*601 CNT_WDATABUS[3]
*602 CNT_WDATABUS[2]
*603 CNT_WDATABUS[1]
*604 CNT_WDATABUS[0]
*605 SYNOPSYS_UNCONNECTED__1
*606 SYNOPSYS_UNCONNECTED__21
*607 SYNOPSYS_UNCONNECTED__49
*608 My_bus/n22
*609 My_bus/n25
*610 My_bus/n28
*611 My_bus/n30
*612 My_bus/n34
*613 My_bus/n250
*614 My_bus/n251
*615 My_bus/n252
*616 My_bus/n253
*617 My_bus/n254
*618 My_bus/n255
*619 My_bus/n256
*620 My_bus/n3
*621 My_bus/n4
*622 My_bus/n5
*623 My_bus/n6
*624 My_bus/n7
*625 My_bus/n8
*626 My_bus/n9
*627 My_bus/n10
*628 My_bus/n11
*629 My_bus/n12
*630 My_bus/n13
*631 My_bus/n14
*632 My_bus/n15
*633 My_bus/n16
*634 My_bus/n17
*635 My_bus/n18
*636 My_bus/n19
*637 My_bus/n20
*638 My_bus/n21
*639 My_bus/n23
*640 My_bus/n24
*641 My_bus/n26
*642 My_bus/n27
*643 My_bus/n29
*644 My_bus/n31
*645 My_bus/n32
*646 My_bus/n33
*647 My_bus/n35
*648 My_bus/n36
*649 My_bus/n37
*650 My_bus/n38
*651 My_bus/n39
*652 My_bus/n40
*653 My_bus/n41
*654 My_bus/n42
*655 My_bus/n43
*656 My_bus/n44
*657 My_bus/n45
*658 My_bus/n46
*659 My_bus/n47
*660 My_bus/n48
*661 My_bus/n49
*662 My_bus/n50
*663 My_bus/n51
*664 My_bus/n52
*665 My_bus/n53
*666 My_bus/n54
*667 My_bus/n55
*668 My_bus/n56
*669 My_bus/n57
*670 My_bus/n58
*671 My_bus/n59
*672 My_bus/n60
*673 My_bus/n61
*674 My_bus/n62
*675 My_bus/n63
*676 My_bus/n64
*677 My_bus/n65
*678 My_bus/n66
*679 My_bus/n67
*680 My_bus/n68
*681 My_bus/n69
*682 My_bus/n70
*683 My_bus/n71
*684 My_bus/n72
*685 My_bus/n73
*686 My_bus/n74
*687 My_bus/n75
*688 My_bus/n76
*689 My_bus/n77
*690 My_bus/n78
*691 My_bus/n79
*692 My_bus/n80
*693 My_bus/n81
*694 My_bus/n82
*695 My_bus/n83
*696 My_bus/n84
*697 My_bus/n85
*698 My_bus/n86
*699 My_bus/n87
*700 My_bus/n88
*701 My_bus/n89
*702 My_bus/n90
*703 My_bus/n91
*704 My_bus/n92
*705 My_bus/n93
*706 My_bus/n94
*707 My_bus/n95
*708 My_bus/n96
*709 My_bus/n97
*710 My_bus/n98
*711 My_bus/n99
*712 My_bus/n100
*713 My_bus/n101
*714 My_bus/n102
*715 My_bus/n103
*716 My_bus/n104
*717 My_bus/n105
*718 My_bus/n106
*719 My_bus/n107
*720 My_bus/n108
*721 My_bus/n109
*722 My_bus/n110
*723 My_bus/n111
*724 My_bus/n112
*725 My_bus/n113
*726 My_bus/n114
*727 My_bus/n115
*728 My_bus/n116
*729 My_bus/n117
*730 My_bus/n118
*731 My_bus/n119
*732 My_bus/n120
*733 My_bus/n121
*734 My_bus/n122
*735 My_bus/n123
*736 My_bus/n124
*737 My_bus/n125
*738 My_bus/n126
*739 My_bus/n127
*740 My_bus/n128
*741 My_bus/n129
*742 My_bus/n130
*743 My_bus/n131
*744 My_bus/n132
*745 My_bus/n133
*746 My_bus/n134
*747 My_bus/n135
*748 My_bus/n136
*749 My_bus/n137
*750 My_bus/n138
*751 My_bus/n139
*752 My_bus/n140
*753 My_bus/n141
*754 My_bus/n142
*755 My_bus/n143
*756 My_bus/n144
*757 My_bus/n145
*758 My_bus/n146
*759 My_bus/n147
*760 My_bus/n148
*761 My_bus/n149
*762 My_bus/n150
*763 My_bus/n151
*764 My_bus/n152
*765 My_bus/n153
*766 My_bus/n154
*767 My_bus/n155
*768 My_bus/n156
*769 My_bus/n157
*770 My_bus/n158
*771 My_bus/n159
*772 My_bus/n160
*773 My_bus/n161
*774 My_bus/n162
*775 My_bus/n163
*776 My_bus/n164
*777 My_bus/n165
*778 My_bus/n166
*779 My_bus/n167
*780 My_bus/n168
*781 My_bus/n169
*782 My_bus/n170
*783 My_bus/n171
*784 My_bus/n172
*785 My_bus/n173
*786 My_bus/n174
*787 My_bus/n175
*788 My_bus/n176
*789 My_bus/n177
*790 My_bus/n178
*791 My_bus/n179
*792 My_bus/n180
*793 My_bus/n181
*794 My_bus/n182
*795 My_bus/n183
*796 My_bus/n184
*797 My_bus/n185
*798 My_bus/n186
*799 My_bus/n187
*800 My_bus/n188
*801 My_bus/n189
*802 My_bus/n190
*803 My_bus/n191
*804 My_bus/n192
*805 My_bus/n193
*806 My_bus/n194
*807 My_bus/n195
*808 My_bus/n196
*809 My_bus/n197
*810 My_bus/n198
*811 My_bus/n199
*812 My_bus/n200
*813 My_bus/n201
*814 My_bus/n202
*815 My_bus/n203
*816 My_bus/n204
*817 My_bus/n205
*818 My_bus/n206
*819 My_bus/n207
*820 My_bus/n208
*821 My_bus/n209
*822 My_bus/n210
*823 My_bus/n211
*824 My_bus/n212
*825 My_bus/n213
*826 My_bus/n214
*827 My_bus/n215
*828 My_bus/n216
*829 My_bus/n217
*830 My_bus/n218
*831 My_bus/n219
*832 My_bus/n220
*833 My_bus/n221
*834 My_bus/n222
*835 My_bus/n223
*836 My_bus/n224
*837 My_bus/n225
*838 My_bus/n226
*839 My_bus/n227
*840 My_bus/n228
*841 My_bus/n229
*842 My_bus/n230
*843 My_bus/n231
*844 My_bus/n232
*845 My_bus/n233
*846 My_bus/n234
*847 My_bus/n235
*848 My_bus/n236
*849 My_bus/n237
*850 My_bus/n238
*851 My_bus/n239
*852 My_bus/n240
*853 My_bus/n241
*854 My_bus/n242
*855 My_bus/n243
*856 My_bus/n244
*857 My_bus/n245
*858 My_bus/n246
*859 My_bus/n247
*860 My_bus/n248
*861 My_bus/n249
*862 My_bus/n257
*863 My_bus/n258
*864 My_bus/n259
*865 My_bus/n260
*866 My_bus/n261
*867 My_bus/n262
*868 My_bus/n263
*869 My_bus/n264
*870 My_bus/n265
*871 My_bus/n266
*872 My_bus/n267
*873 My_bus/n268
*874 My_bus/n269
*875 My_bus/n270
*876 My_bus/n271
*877 My_bus/n272
*878 My_bus/n273
*879 My_bus/n274
*880 My_bus/n275
*881 My_bus/n276
*882 My_bus/n277
*883 My_bus/n278
*884 My_bus/n279
*885 My_bus/n280
*886 My_bus/n281
*887 My_bus/n282
*888 My_bus/n283
*889 My_bus/n284
*890 My_bus/n285
*891 My_bus/n286
*892 My_bus/n287
*893 My_bus/n288
*894 My_bus/n289
*895 My_bus/n290
*896 My_bus/n291
*897 My_bus/n292
*898 My_bus/n293
*899 My_bus/n294
*900 My_bus/n295
*901 My_bus/n296
*902 My_bus/n297
*903 My_bus/n298
*904 My_bus/n299
*905 My_bus/n300
*906 My_bus/n301
*907 My_bus/n302
*908 My_bus/n303
*909 My_bus/n304
*910 My_bus/n305
*911 My_bus/n306
*912 My_DMA/N34
*913 My_DMA/N40
*914 My_DMA/N41
*915 My_DMA/N42
*916 My_DMA/N43
*917 My_DMA/N44
*918 My_DMA/N45
*919 My_DMA/N46
*920 My_DMA/N47
*921 My_DMA/N48
*922 My_DMA/N49
*923 My_DMA/N50
*924 My_DMA/N51
*925 My_DMA/N52
*926 My_DMA/N53
*927 My_DMA/N54
*928 My_DMA/N55
*929 My_DMA/N56
*930 My_DMA/N57
*931 My_DMA/N58
*932 My_DMA/N59
*933 My_DMA/N60
*934 My_DMA/N61
*935 My_DMA/N62
*936 My_DMA/N63
*937 My_DMA/N64
*938 My_DMA/N65
*939 My_DMA/N66
*940 My_DMA/N67
*941 My_DMA/N68
*942 My_DMA/N69
*943 My_DMA/N70
*944 My_DMA/N71
*945 My_DMA/N72
*946 My_DMA/N73
*947 My_DMA/N74
*948 My_DMA/N75
*949 My_DMA/N76
*950 My_DMA/N77
*951 My_DMA/N78
*952 My_DMA/N79
*953 My_DMA/N80
*954 My_DMA/N81
*955 My_DMA/N82
*956 My_DMA/N83
*957 My_DMA/N84
*958 My_DMA/N85
*959 My_DMA/N86
*960 My_DMA/N87
*961 My_DMA/N88
*962 My_DMA/N89
*963 My_DMA/N90
*964 My_DMA/N91
*965 My_DMA/N92
*966 My_DMA/N93
*967 My_DMA/N94
*968 My_DMA/N95
*969 My_DMA/N96
*970 My_DMA/N97
*971 My_DMA/N98
*972 My_DMA/N99
*973 My_DMA/N100
*974 My_DMA/N101
*975 My_DMA/N102
*976 My_DMA/N103
*977 My_DMA/N105
*978 My_DMA/N106
*979 My_DMA/N107
*980 My_DMA/N108
*981 My_DMA/N109
*982 My_DMA/N110
*983 My_DMA/N111
*984 My_DMA/N112
*985 My_DMA/N113
*986 My_DMA/N114
*987 My_DMA/N115
*988 My_DMA/N116
*989 My_DMA/N117
*990 My_DMA/N118
*991 My_DMA/N119
*992 My_DMA/N120
*993 My_DMA/N121
*994 My_DMA/N122
*995 My_DMA/N123
*996 My_DMA/N124
*997 My_DMA/N125
*998 My_DMA/N126
*999 My_DMA/N127
*1000 My_DMA/N128
*1001 My_DMA/N129
*1002 My_DMA/N130
*1003 My_DMA/N131
*1004 My_DMA/N132
*1005 My_DMA/N133
*1006 My_DMA/N134
*1007 My_DMA/N135
*1008 My_DMA/N136
*1009 My_DMA/N277
*1010 My_DMA/N278
*1011 My_DMA/N724
*1012 My_DMA/n11
*1013 My_DMA/n12
*1014 My_DMA/n13
*1015 My_DMA/n14
*1016 My_DMA/n15
*1017 My_DMA/n16
*1018 My_DMA/n17
*1019 My_DMA/n18
*1020 My_DMA/n19
*1021 My_DMA/n20
*1022 My_DMA/n21
*1023 My_DMA/n22
*1024 My_DMA/n23
*1025 My_DMA/n24
*1026 My_DMA/n25
*1027 My_DMA/n26
*1028 My_DMA/n27
*1029 My_DMA/n28
*1030 My_DMA/n29
*1031 My_DMA/n30
*1032 My_DMA/n31
*1033 My_DMA/n32
*1034 My_DMA/n33
*1035 My_DMA/n34
*1036 My_DMA/n35
*1037 My_DMA/n36
*1038 My_DMA/n37
*1039 My_DMA/n38
*1040 My_DMA/n39
*1041 My_DMA/n40
*1042 My_DMA/n41
*1043 My_DMA/n42
*1044 My_DMA/n43
*1045 My_DMA/n44
*1046 My_DMA/n45
*1047 My_DMA/n46
*1048 My_DMA/n47
*1049 My_DMA/n48
*1050 My_DMA/n49
*1051 My_DMA/n50
*1052 My_DMA/n51
*1053 My_DMA/n52
*1054 My_DMA/n53
*1055 My_DMA/n54
*1056 My_DMA/n55
*1057 My_DMA/n56
*1058 My_DMA/n57
*1059 My_DMA/n58
*1060 My_DMA/n59
*1061 My_DMA/n60
*1062 My_DMA/n61
*1063 My_DMA/n62
*1064 My_DMA/n63
*1065 My_DMA/n64
*1066 My_DMA/n65
*1067 My_DMA/n66
*1068 My_DMA/n67
*1069 My_DMA/n68
*1070 My_DMA/n69
*1071 My_DMA/n70
*1072 My_DMA/n71
*1073 My_DMA/n72
*1074 My_DMA/n73
*1075 My_DMA/n74
*1076 My_DMA/n75
*1077 My_DMA/n76
*1078 My_DMA/n77
*1079 My_DMA/n78
*1080 My_DMA/n79
*1081 My_DMA/n80
*1082 My_DMA/n81
*1083 My_DMA/n82
*1084 My_DMA/n83
*1085 My_DMA/n84
*1086 My_DMA/n85
*1087 My_DMA/n86
*1088 My_DMA/n87
*1089 My_DMA/n88
*1090 My_DMA/n89
*1091 My_DMA/n90
*1092 My_DMA/n91
*1093 My_DMA/n92
*1094 My_DMA/n93
*1095 My_DMA/n94
*1096 My_DMA/n95
*1097 My_DMA/n96
*1098 My_DMA/n97
*1099 My_DMA/n98
*1100 My_DMA/n99
*1101 My_DMA/n100
*1102 My_DMA/n101
*1103 My_DMA/n102
*1104 My_DMA/n103
*1105 My_DMA/n104
*1106 My_DMA/n105
*1107 My_DMA/n106
*1108 My_DMA/n107
*1109 My_DMA/n108
*1110 My_DMA/n109
*1111 My_DMA/n110
*1112 My_DMA/n111
*1113 My_DMA/n112
*1114 My_DMA/n113
*1115 My_DMA/n114
*1116 My_DMA/n115
*1117 My_DMA/n116
*1118 My_DMA/n117
*1119 My_DMA/n118
*1120 My_DMA/n119
*1121 My_DMA/n120
*1122 My_DMA/n121
*1123 My_DMA/n122
*1124 My_DMA/n123
*1125 My_DMA/n124
*1126 My_DMA/n125
*1127 My_DMA/n126
*1128 My_DMA/n127
*1129 My_DMA/n128
*1130 My_DMA/n129
*1131 My_DMA/n130
*1132 My_DMA/n131
*1133 My_DMA/n132
*1134 My_DMA/n133
*1135 My_DMA/n134
*1136 My_DMA/n135
*1137 My_DMA/n136
*1138 My_DMA/n137
*1139 My_DMA/n138
*1140 My_DMA/n139
*1141 My_DMA/n140
*1142 My_DMA/n141
*1143 My_DMA/n142
*1144 My_DMA/n143
*1145 My_DMA/n144
*1146 My_DMA/n145
*1147 My_DMA/n146
*1148 My_DMA/n147
*1149 My_DMA/n148
*1150 My_DMA/n149
*1151 My_DMA/n150
*1152 My_DMA/n151
*1153 My_DMA/n152
*1154 My_DMA/n153
*1155 My_DMA/n154
*1156 My_DMA/n155
*1157 My_DMA/n156
*1158 My_DMA/n157
*1159 My_DMA/n158
*1160 My_DMA/n159
*1161 My_DMA/n160
*1162 My_DMA/n161
*1163 My_DMA/n162
*1164 My_DMA/n163
*1165 My_DMA/n164
*1166 My_DMA/n165
*1167 My_DMA/n166
*1168 My_DMA/n167
*1169 My_DMA/n168
*1170 My_DMA/n169
*1171 My_DMA/n170
*1172 My_DMA/n171
*1173 My_DMA/n172
*1174 My_DMA/n173
*1175 My_DMA/n174
*1176 My_DMA/n175
*1177 My_DMA/n176
*1178 My_DMA/n177
*1179 My_DMA/n178
*1180 My_DMA/n179
*1181 My_DMA/n180
*1182 My_DMA/n181
*1183 My_DMA/n182
*1184 My_DMA/n183
*1185 My_DMA/n184
*1186 My_DMA/n185
*1187 My_DMA/n186
*1188 My_DMA/n187
*1189 My_DMA/n188
*1190 My_DMA/n189
*1191 My_DMA/n190
*1192 My_DMA/n191
*1193 My_DMA/n192
*1194 My_DMA/n193
*1195 My_DMA/n194
*1196 My_DMA/n195
*1197 My_DMA/n196
*1198 My_DMA/n197
*1199 My_DMA/n198
*1200 My_DMA/n199
*1201 My_DMA/n200
*1202 My_DMA/n201
*1203 My_DMA/n202
*1204 My_DMA/n203
*1205 My_DMA/n204
*1206 My_DMA/n205
*1207 My_DMA/n206
*1208 My_DMA/n207
*1209 My_DMA/n208
*1210 My_DMA/n209
*1211 My_DMA/n210
*1212 My_DMA/n211
*1213 My_DMA/n212
*1214 My_DMA/n213
*1215 My_DMA/n214
*1216 My_DMA/n215
*1217 My_DMA/n216
*1218 My_DMA/n217
*1219 My_DMA/n218
*1220 My_DMA/n219
*1221 My_DMA/n220
*1222 My_DMA/n221
*1223 My_DMA/n222
*1224 My_DMA/n223
*1225 My_DMA/n224
*1226 My_DMA/n225
*1227 My_DMA/n226
*1228 My_DMA/n227
*1229 My_DMA/n228
*1230 My_DMA/n229
*1231 My_DMA/n230
*1232 My_DMA/n231
*1233 My_DMA/n232
*1234 My_DMA/n233
*1235 My_DMA/n234
*1236 My_DMA/n235
*1237 My_DMA/n236
*1238 My_DMA/n237
*1239 My_DMA/n238
*1240 My_DMA/n239
*1241 My_DMA/n240
*1242 My_DMA/n241
*1243 My_DMA/n242
*1244 My_DMA/n243
*1245 My_DMA/n244
*1246 My_DMA/n245
*1247 My_DMA/n246
*1248 My_DMA/n247
*1249 My_DMA/n248
*1250 My_DMA/n249
*1251 My_DMA/n250
*1252 My_DMA/n251
*1253 My_DMA/n252
*1254 My_DMA/n253
*1255 My_DMA/n254
*1256 My_DMA/n255
*1257 My_DMA/n256
*1258 My_DMA/n257
*1259 My_DMA/n258
*1260 My_DMA/n259
*1261 My_DMA/n260
*1262 My_DMA/n261
*1263 My_DMA/n262
*1264 My_DMA/n263
*1265 My_DMA/n264
*1266 My_DMA/n265
*1267 My_DMA/n266
*1268 My_DMA/n267
*1269 My_DMA/n268
*1270 My_DMA/n269
*1271 My_DMA/n270
*1272 My_DMA/n271
*1273 My_DMA/n272
*1274 My_DMA/n273
*1275 My_DMA/n274
*1276 My_DMA/n275
*1277 My_DMA/n276
*1278 My_DMA/n277
*1279 My_DMA/n278
*1280 My_DMA/n279
*1281 My_DMA/n280
*1282 My_DMA/n281
*1283 My_DMA/n282
*1284 My_DMA/n283
*1285 My_DMA/n284
*1286 My_DMA/n285
*1287 My_DMA/n286
*1288 My_DMA/n287
*1289 My_DMA/n288
*1290 My_DMA/n289
*1291 My_DMA/n290
*1292 My_DMA/n291
*1293 My_DMA/n292
*1294 My_DMA/n293
*1295 My_DMA/n294
*1296 My_DMA/n295
*1297 My_DMA/n296
*1298 My_DMA/n297
*1299 My_DMA/n298
*1300 My_DMA/n299
*1301 My_DMA/n300
*1302 My_DMA/n301
*1303 My_DMA/n302
*1304 My_DMA/n303
*1305 My_DMA/n304
*1306 My_DMA/n305
*1307 My_DMA/n306
*1308 My_DMA/n307
*1309 My_DMA/n308
*1310 My_DMA/n309
*1311 My_DMA/n310
*1312 My_DMA/n311
*1313 My_DMA/n312
*1314 My_DMA/n313
*1315 My_DMA/n314
*1316 My_DMA/n315
*1317 My_DMA/n316
*1318 My_DMA/n317
*1319 My_DMA/n318
*1320 My_DMA/n319
*1321 My_DMA/n320
*1322 My_DMA/n321
*1323 My_DMA/n322
*1324 My_DMA/n323
*1325 My_DMA/n324
*1326 My_DMA/n325
*1327 My_DMA/n326
*1328 My_DMA/n327
*1329 My_DMA/n328
*1330 My_DMA/n329
*1331 My_DMA/n330
*1332 My_DMA/n331
*1333 My_DMA/n332
*1334 My_DMA/n333
*1335 My_DMA/n334
*1336 My_DMA/n335
*1337 My_DMA/n336
*1338 My_DMA/n337
*1339 My_DMA/n338
*1340 My_DMA/n339
*1341 My_DMA/n340
*1342 My_DMA/n341
*1343 My_DMA/n342
*1344 My_DMA/n343
*1345 My_DMA/n344
*1346 My_DMA/n345
*1347 My_DMA/n346
*1348 My_DMA/n347
*1349 My_DMA/n348
*1350 My_DMA/n349
*1351 My_DMA/n350
*1352 My_DMA/n351
*1353 My_DMA/n352
*1354 My_DMA/n353
*1355 My_DMA/n354
*1356 My_DMA/n355
*1357 My_DMA/n356
*1358 My_DMA/n357
*1359 My_DMA/n358
*1360 My_DMA/n359
*1361 My_DMA/n360
*1362 My_DMA/n361
*1363 My_DMA/n362
*1364 My_DMA/n363
*1365 My_DMA/n364
*1366 My_DMA/n365
*1367 My_DMA/n366
*1368 My_DMA/n367
*1369 My_DMA/n368
*1370 My_DMA/n369
*1371 My_DMA/n370
*1372 My_DMA/n371
*1373 My_DMA/n372
*1374 My_DMA/n373
*1375 My_DMA/n374
*1376 My_DMA/n375
*1377 My_DMA/n376
*1378 My_DMA/n377
*1379 My_DMA/n378
*1380 My_DMA/n379
*1381 My_DMA/n380
*1382 My_DMA/n381
*1383 My_DMA/n382
*1384 My_DMA/n383
*1385 My_DMA/n384
*1386 My_DMA/n385
*1387 My_DMA/n386
*1388 My_DMA/n387
*1389 My_DMA/n388
*1390 My_DMA/n389
*1391 My_DMA/n390
*1392 My_DMA/n391
*1393 My_DMA/n392
*1394 My_DMA/n393
*1395 My_DMA/n394
*1396 My_DMA/n395
*1397 My_DMA/n396
*1398 My_DMA/n397
*1399 My_DMA/n398
*1400 My_DMA/n399
*1401 My_DMA/n400
*1402 My_DMA/n401
*1403 My_DMA/n402
*1404 My_DMA/n403
*1405 My_DMA/n404
*1406 My_DMA/n405
*1407 My_DMA/n406
*1408 My_DMA/n407
*1409 My_DMA/n408
*1410 My_DMA/n409
*1411 My_DMA/n410
*1412 My_DMA/n411
*1413 My_DMA/n412
*1414 My_DMA/n413
*1415 My_DMA/n414
*1416 My_DMA/n415
*1417 My_DMA/n416
*1418 My_DMA/n417
*1419 My_DMA/n418
*1420 My_DMA/n419
*1421 My_DMA/n420
*1422 My_DMA/n421
*1423 My_DMA/n422
*1424 My_DMA/n423
*1425 My_DMA/n424
*1426 My_DMA/n425
*1427 My_DMA/n426
*1428 My_DMA/n427
*1429 My_DMA/n428
*1430 My_DMA/n429
*1431 My_DMA/n430
*1432 My_DMA/n431
*1433 My_DMA/n432
*1434 My_DMA/n433
*1435 My_DMA/n434
*1436 My_DMA/n435
*1437 My_DMA/n436
*1438 My_DMA/n437
*1439 My_DMA/n438
*1440 My_DMA/n439
*1441 My_DMA/n440
*1442 My_DMA/n441
*1443 My_DMA/n442
*1444 My_DMA/n443
*1445 My_DMA/n444
*1446 My_DMA/n445
*1447 My_DMA/n446
*1448 My_DMA/n447
*1449 My_DMA/n448
*1450 My_DMA/n449
*1451 My_DMA/n450
*1452 My_DMA/n451
*1453 My_DMA/n452
*1454 My_DMA/n453
*1455 My_DMA/n454
*1456 My_DMA/n455
*1457 My_DMA/n456
*1458 My_DMA/n457
*1459 My_DMA/n458
*1460 My_DMA/n459
*1461 My_DMA/n460
*1462 My_DMA/n461
*1463 My_DMA/n462
*1464 My_DMA/n463
*1465 My_DMA/n464
*1466 My_DMA/n465
*1467 My_DMA/n466
*1468 My_DMA/n467
*1469 My_DMA/n468
*1470 My_DMA/n469
*1471 My_DMA/n470
*1472 My_DMA/n471
*1473 My_DMA/n472
*1474 My_DMA/n473
*1475 My_DMA/n474
*1476 My_DMA/n475
*1477 My_DMA/n476
*1478 My_DMA/n477
*1479 My_DMA/n478
*1480 My_DMA/n479
*1481 My_DMA/n480
*1482 My_DMA/n481
*1483 My_DMA/n482
*1484 My_DMA/n483
*1485 My_DMA/n484
*1486 My_DMA/n485
*1487 My_DMA/n486
*1488 My_DMA/n487
*1489 My_DMA/n488
*1490 My_DMA/n489
*1491 My_DMA/n490
*1492 My_DMA/n491
*1493 My_DMA/n492
*1494 My_DMA/n493
*1495 My_DMA/n494
*1496 My_DMA/n495
*1497 My_DMA/n496
*1498 My_DMA/n497
*1499 My_DMA/n498
*1500 My_DMA/n499
*1501 My_DMA/n500
*1502 My_DMA/n501
*1503 My_DMA/n502
*1504 My_DMA/n503
*1505 My_DMA/n504
*1506 My_DMA/n505
*1507 My_DMA/n506
*1508 My_DMA/n507
*1509 My_DMA/n508
*1510 My_DMA/n509
*1511 My_DMA/n510
*1512 My_DMA/n511
*1513 My_DMA/n512
*1514 My_DMA/n513
*1515 My_DMA/n514
*1516 My_DMA/n515
*1517 My_DMA/n516
*1518 My_DMA/n517
*1519 My_DMA/n518
*1520 My_DMA/n519
*1521 My_DMA/n520
*1522 My_DMA/n521
*1523 My_DMA/n522
*1524 My_DMA/n523
*1525 My_DMA/n524
*1526 My_DMA/n525
*1527 My_DMA/n526
*1528 My_DMA/n527
*1529 My_DMA/n528
*1530 My_DMA/n529
*1531 My_DMA/n530
*1532 My_DMA/n531
*1533 My_DMA/n532
*1534 My_DMA/n533